<?xml version="1.0" encoding="UTF-8"?>

<!-- generated on 2023-07-30 15:34:56 by Eclipse SUMO GUI Version 1.18.0
-->

<configuration xmlns:xsi="http://www.w3.org/2001/XMLSchema-instance" xsi:noNamespaceSchemaLocation="http://sumo.dlr.de/xsd/sumoConfiguration.xsd">

    <input>
        <net-file value="Driv1.net.xml"/>
    </input>

</configuration>
